Version 4
SHEET 1 880 680
WIRE 448 48 352 48
WIRE 352 96 352 48
WIRE 384 96 352 96
WIRE 448 112 448 48
WIRE 464 112 448 112
WIRE 560 112 544 112
WIRE 64 128 -16 128
WIRE 176 128 144 128
WIRE 288 128 256 128
WIRE 384 128 288 128
WIRE 560 128 560 112
WIRE -16 144 -16 128
WIRE 288 144 288 128
WIRE -16 256 -16 224
WIRE 224 256 -16 256
WIRE 288 256 288 208
WIRE 288 256 224 256
FLAG 560 112 vo
FLAG -16 128 vi
FLAG 224 256 0
FLAG 560 192 0
SYMBOL ind 160 112 R90
WINDOW 0 5 56 VBottom 2
WINDOW 3 57 55 VBottom 2
SYMATTR InstName L1
SYMATTR Value {L1_n}
SYMBOL cap 272 144 R0
WINDOW 0 34 36 Left 2
WINDOW 3 18 63 Left 2
SYMATTR InstName C1
SYMATTR Value {C1_n}
SYMBOL res 272 112 R90
WINDOW 3 32 56 VTop 2
WINDOW 0 0 56 VBottom 2
SYMATTR Value {nz}
SYMATTR InstName R1
SYMBOL voltage -16 128 R0
WINDOW 123 24 124 Left 2
WINDOW 39 0 0 Left 0
SYMATTR Value2 AC 1
SYMATTR InstName V1
SYMATTR Value ""
SYMBOL Opamps\\opamp 416 48 R0
SYMATTR InstName U1
SYMBOL res 560 96 R90
WINDOW 0 0 56 VBottom 2
WINDOW 3 32 56 VTop 2
SYMATTR InstName R2
SYMATTR Value {nz}
SYMBOL cap 544 128 R0
SYMATTR InstName C2
SYMATTR Value {C1_n}
TEXT -48 272 Left 2 !;ac dec 1000 0.01 10
TEXT -424 80 Left 2 !.param f = w/(2*pi)\n.step dec param w 1 20k 30\n.ac list {f}
TEXT -416 -16 Left 2 !.param wo=11805
TEXT -416 8 Left 2 !.param nz=847.05
TEXT -408 -48 Left 2 ;Normalizaciones en impedancia y wo
TEXT -416 56 Left 2 ;Ajuste de grafico f->w
TEXT 104 -8 Left 2 !.param L1_n = nz/wo
TEXT 104 16 Left 2 !.param C1_n = 1/(nz*wo)
TEXT 96 -40 Left 2 ;Componentes
TEXT -392 224 Left 2 !.inc opamp.sub
